/*--------------------------------*- C++ -*----------------------------------*\
| =========                 |                                                 |
| \\      /  F ield         | OpenFOAM: The Open Source CFD Toolbox           |
|  \\    /   O peration     | Version:  v2112                                 |
|   \\  /    A nd           | Website:  www.openfoam.com                      |
|    \\/     M anipulation  |                                                 |
\*---------------------------------------------------------------------------*/
FoamFile
{
    version     2.0;
    format      ascii;
    class       dictionary;
    object      phaseProperties;
}
// * * * * * * * * * * * * * * * * * * * * * * * * * * * * * * * * * * * * * //

type            entrainedPropellantCombustionMultiphaseSystem;

phases          (gas particles propellant);

particlePhase	particles;

gasPhase	gas;

propellantIndex 2;

molecularWeight
{
  Al        27;
  Al2O3     102;
  H2        2;
  H2O       18;
}

trapingFactor  0; // Not Implemented yet

activeAlContent	  0.745;

equivalenceRatio    0.943;

Tad                 2740;

Tset		    2700;

Efficiency	        1.0;

chemicalEfficiency    1.0;

thinFlimModel	      true;

propellantRho       1480;
limitAlpha 	    0;
particleRho	    3950;
Retained	0;
totalEnergy 	false;

isoAdvection   false;

regression 	true;

solveStaticAlpha   true;

checkRegression    full;

stopRegression     0;

V0	             0;

gas
{
    type            pureThermalEnergyPhaseModel;
    diameterModel   constant;
    constantCoeffs
    {
        d               80e-9;
    }
    residualAlpha   1e-15;
}

particles
{
    type            pureParticlePhaseModel;
    diameterModel   constant;
    constantCoeffs
    {
        d               80e-9;
    }
    residualAlpha   1e-15;
}

propellant
{
    type            pureIsothermalStaticPhaseModel;
    diameterModel   constant;
    constantCoeffs
    {
        d           80e-9;
    }
    residualAlpha   1e-15;
}

interfaceTracking1
(
  (particles in gas)
  {
    type            entrainedInterfaceMotion;
    propellant      propellant;
    n               0.405;
    a               0.992;
    f               1.0;
    Pmin	    10;
    isoAlpha 	    0.5;
    MR		    0;
  }
);

interfaceTracking
();

sharpInterfaceHeatTransfer1
();

sharpInterfaceHeatTransfer
(
  (particles in gas)
  {
    //type            RanzMarshall;
    type            KavanauRanzMarshall;
    residualAlpha   1e-6;
    cutoff          1e-15;
    gammaR          3697.6;
  }
);

blending
{
    default
    {
      type            none;
      continuousPhase gas;
    }
}

surfaceTension
();

saturationModel
{
	type 	constant;
	Tsat	373;
	pSat	1e5;
};

aspectRatio
();

drag1
();

drag
(
  (particles in gas)
  {
    type            Loth;
    //type            CliftGauvinMilikan;
    residualRe      1e-15;
    R	 	    2854.4;
    gamma	    1.2954;
    swarmCorrection
    {
    	type        none;
    }
  }
);

virtualMass
();

interfaceComposition
();

interfaceCompression
();

// Models used to find Mass Transfer Coefficient for component transfer within the gas phase
massTransfer.gas
();

massTransfer.propellant
();

heatTransfer.particles
();

heatTransfer.gas
();

heatTransfer.propellant
();

phaseTransfer
();

lift
();

wallLubrication
();

turbulentDispersion
();

// Minimum allowable pressure
pMin            10;


// ************************************************************************* //
